[OPTIONS]
  AREA_UNITS  FT2
  RATE_UNITS  HR
  SOLVER      RK5
  TIMESTEP    300

[SPECIES]
  BULK  T1    MG         ;Source 1 tracer
  BULK  CL2   MG         ;Free chlorine

[COEFFICIENTS]
  CONSTANT  k1  1.3      ;Source 1 decay coeff.
  CONSTANT  k2  17.7     ;Source 2 decay coeff.

[PIPES]
  ;T1 is conservative
  RATE  T1   0

  ;CL2 has first order decay
  RATE  CL2  –(k1*T1 + k2*(1-T1))*CL2

[QUALITY]
  ;Initial conditions (= 0 if not specified here)
  NODE   1      T1   1.0 
  NODE   1      CL2  1.2
  NODE   2      CL2  1.2   
